tests/data/power_flow/pandapower-test-sym_gen/sym_output.json
{
  "line": [
    {
      "id": 3,
      "loading": 0.019449588796241934,
      "p_from": -29937.959963246256,
      "q_from": -352463.9420075255,
      "i_from": 19.449588796241933,
      "s_from": 353733.10823592014,
      "p_to": 30012.86286231617,
      "q_to": 6002.572593539026,
      "i_to": 1.6822405863928167,
      "s_to": 30607.234682880175
    }
  ],
  "node": [
    {
      "id": 1,
      "u_pu": 1.0000353681158427,
      "u": 10500.37136521635,
      "u_angle": -5.281902664099392e-07
    },
    {
      "id": 2,
      "u_pu": 1.0004285116187457,
      "u": 10504.49937199683,
      "u_angle": -0.00035256676771360776
    }
  ],
  "source": [
    {
      "id": 4,
      "p": -29937.959976036476,
      "q": -352463.94200425677,
      "i": 19.44958879612238,
      "s": 353733.1082337457
    }
  ],
  "sym_gen": [
    {
      "id": 6,
      "p": 10000.0,
      "q": 2000.0,
      "i": 0.5605065381076474,
      "s": 10198.03902718557
    },
    {
      "id": 7,
      "p": 10004.285116187457,
      "q": 2000.8570232374914,
      "i": 0.5607467216716094,
      "s": 10202.409005397141
    },
    {
      "id": 8,
      "p": 10008.572068596988,
      "q": 2001.7144137193977,
      "i": 0.5609870081570193,
      "s": 10206.78085619515
    },
    {
      "id": 9,
      "p": -0.0,
      "q": -0.0,
      "i": 0.0,
      "s": 0.0
    }
  ]
}